ieee33-dg-voltage-regulation/results/S3_Strategy1_Voltages.csv
Bus, BasekV, Node1, Magnitude1, Angle1, pu1, Node2, Magnitude2, Angle2, pu2, Node3, Magnitude3, Angle3, pu3
"SOURCEBUS", 110, 1,    66620.2,    0.0,     1.049, 2,    66620.2, -120.0,     1.049, 3,    66620.2,  120.0,     1.049
"1", 12.66, 1,    7468.15,   -1.8,    1.0217, 2,    7468.15, -121.8,    1.0217, 3,    7468.15,  118.2,    1.0217
"2", 12.66, 1,    7456.09,   -1.8,    1.0201, 2,    7456.09, -121.8,    1.0201, 3,    7456.09,  118.2,    1.0201
"3", 12.66, 1,    7397.46,   -1.7,    1.0121, 2,    7397.46, -121.7,    1.0121, 3,    7397.46,  118.3,    1.0121
"4", 12.66, 1,    7370.69,   -1.7,    1.0084, 2,    7370.69, -121.7,    1.0084, 3,    7370.69,  118.3,    1.0084
"5", 12.66, 1,    7345.58,   -1.6,     1.005, 2,    7345.58, -121.6,     1.005, 3,    7345.58,  118.4,     1.005
"6", 12.66, 1,    7284.26,   -1.7,   0.99658, 2,    7284.26, -121.7,   0.99658, 3,    7284.26,  118.3,   0.99658
"7", 12.66, 1,    7274.22,   -1.6,   0.99521, 2,    7274.22, -121.6,   0.99521, 3,    7274.22,  118.4,   0.99521
"8", 12.66, 1,    7278.64,   -1.5,   0.99581, 2,    7278.64, -121.5,   0.99581, 3,    7278.64,  118.5,   0.99581
"9", 12.66, 1,    7293.14,   -1.4,   0.99779, 2,    7293.14, -121.4,   0.99779, 3,    7293.14,  118.6,   0.99779
"10", 12.66, 1,     7311.5,   -1.2,    1.0003, 2,     7311.5, -121.2,    1.0003, 3,     7311.5,  118.8,    1.0003
"11", 12.66, 1,    7313.08,   -1.2,    1.0005, 2,    7313.08, -121.2,    1.0005, 3,    7313.08,  118.8,    1.0005
"12", 12.66, 1,    7317.02,   -1.1,    1.0011, 2,    7317.02, -121.1,    1.0011, 3,    7317.02,  118.9,    1.0011
"13", 12.66, 1,    7333.82,   -0.9,    1.0034, 2,    7333.82, -120.9,    1.0034, 3,    7333.82,  119.1,    1.0034
"14", 12.66, 1,    7341.18,   -0.8,    1.0044, 2,    7341.18, -120.8,    1.0044, 3,    7341.18,  119.2,    1.0044
"15", 12.66, 1,    7355.25,   -0.7,    1.0063, 2,    7355.25, -120.7,    1.0063, 3,    7355.25,  119.3,    1.0063
"16", 12.66, 1,    7375.31,   -0.6,     1.009, 2,    7375.31, -120.6,     1.009, 3,    7375.31,  119.4,     1.009
"17", 12.66, 1,    7415.66,   -0.3,    1.0146, 2,    7415.66, -120.3,    1.0146, 3,    7415.66,  119.7,    1.0146
"18", 12.66, 1,    7440.47,   -0.1,     1.018, 2,    7440.47, -120.1,     1.018, 3,    7440.47,  119.9,     1.018
"19", 12.66, 1,    7454.73,   -1.8,    1.0199, 2,    7454.73, -121.8,    1.0199, 3,    7454.73,  118.2,    1.0199
"20", 12.66, 1,    7451.16,   -1.7,    1.0194, 2,    7451.16, -121.7,    1.0194, 3,    7451.16,  118.3,    1.0194
"21", 12.66, 1,    7452.35,   -1.7,    1.0196, 2,    7452.35, -121.7,    1.0196, 3,    7452.35,  118.3,    1.0196
"22", 12.66, 1,    7458.78,   -1.7,    1.0205, 2,    7458.78, -121.7,    1.0205, 3,    7458.78,  118.3,    1.0205
"23", 12.66, 1,    7377.59,   -1.7,    1.0093, 2,    7377.59, -121.7,    1.0093, 3,    7377.59,  118.3,    1.0093
"24", 12.66, 1,    7341.52,   -1.8,    1.0044, 2,    7341.52, -121.8,    1.0044, 3,    7341.52,  118.2,    1.0044
"25", 12.66, 1,    7329.09,   -1.8,    1.0027, 2,    7329.09, -121.8,    1.0027, 3,    7329.09,  118.2,    1.0027
"26", 12.66, 1,    7273.74,   -1.7,   0.99514, 2,    7273.74, -121.7,   0.99514, 3,    7273.74,  118.3,   0.99514
"27", 12.66, 1,    7259.96,   -1.7,   0.99326, 2,    7259.96, -121.7,   0.99326, 3,    7259.96,  118.3,   0.99326
"28", 12.66, 1,     7206.1,   -1.8,   0.98589, 2,     7206.1, -121.8,   0.98589, 3,     7206.1,  118.2,   0.98589
"29", 12.66, 1,    7168.24,   -1.9,   0.98071, 2,    7168.24, -121.9,   0.98071, 3,    7168.24,  118.1,   0.98071
"30", 12.66, 1,    7150.65,   -1.9,    0.9783, 2,    7150.65, -121.9,    0.9783, 3,    7150.65,  118.1,    0.9783
"31", 12.66, 1,    7147.82,   -2.2,   0.97791, 2,    7147.82, -122.2,   0.97791, 3,    7147.82,  117.8,   0.97791
"32", 12.66, 1,    7151.24,   -2.3,   0.97838, 2,    7151.24, -122.3,   0.97838, 3,    7151.24,  117.7,   0.97838
"33", 12.66, 1,    7163.52,   -2.4,   0.98006, 2,    7163.52, -122.4,   0.98006, 3,    7163.52,  117.6,   0.98006
